Version 4
SHEET 1 2644 1704
WIRE 1360 64 1360 32
WIRE 1360 64 1312 64
WIRE 1408 64 1360 64
WIRE 1840 64 1840 32
WIRE 1840 64 1792 64
WIRE 1888 64 1840 64
WIRE 1312 96 1312 64
WIRE 1792 96 1792 64
WIRE 1264 112 1200 112
WIRE 1744 112 1680 112
WIRE 1408 144 1408 64
WIRE 1408 144 1312 144
WIRE 1888 144 1888 64
WIRE 1888 144 1792 144
WIRE 992 208 832 208
WIRE 1200 208 1200 112
WIRE 1200 208 992 208
WIRE 1312 208 1312 192
WIRE 1680 208 1680 112
WIRE 1680 208 1312 208
WIRE 1792 208 1792 192
WIRE 1968 208 1792 208
WIRE 1312 224 1312 208
WIRE 1792 224 1792 208
WIRE 640 240 640 208
WIRE 832 240 832 208
WIRE 1408 272 1312 272
WIRE 1888 272 1792 272
WIRE 1200 304 1200 208
WIRE 1264 304 1200 304
WIRE 1680 304 1680 208
WIRE 1744 304 1680 304
WIRE 640 352 640 320
WIRE 832 352 832 320
WIRE 1312 352 1312 320
WIRE 1360 352 1312 352
WIRE 1408 352 1408 272
WIRE 1408 352 1360 352
WIRE 1792 352 1792 320
WIRE 1840 352 1792 352
WIRE 1888 352 1888 272
WIRE 1888 352 1840 352
WIRE 1360 400 1360 352
WIRE 1840 400 1840 352
WIRE 1968 480 1968 208
WIRE 1968 480 1120 480
WIRE 1360 656 1360 624
WIRE 1360 656 1312 656
WIRE 1408 656 1360 656
WIRE 1840 656 1840 624
WIRE 1840 656 1792 656
WIRE 1888 656 1840 656
WIRE 1312 688 1312 656
WIRE 1792 688 1792 656
WIRE 1264 704 1200 704
WIRE 1744 704 1680 704
WIRE 1408 736 1408 656
WIRE 1408 736 1312 736
WIRE 1888 736 1888 656
WIRE 1888 736 1792 736
WIRE 1120 800 1120 480
WIRE 1200 800 1200 704
WIRE 1200 800 1120 800
WIRE 1312 800 1312 784
WIRE 1680 800 1680 704
WIRE 1680 800 1312 800
WIRE 1792 800 1792 784
WIRE 1968 800 1792 800
WIRE 1312 816 1312 800
WIRE 1792 816 1792 800
WIRE 1408 864 1312 864
WIRE 1888 864 1792 864
WIRE 1200 896 1200 800
WIRE 1264 896 1200 896
WIRE 1680 896 1680 800
WIRE 1744 896 1680 896
WIRE 1312 944 1312 912
WIRE 1360 944 1312 944
WIRE 1408 944 1408 864
WIRE 1408 944 1360 944
WIRE 1792 944 1792 912
WIRE 1840 944 1792 944
WIRE 1888 944 1888 864
WIRE 1888 944 1840 944
WIRE 1360 992 1360 944
WIRE 1840 992 1840 944
WIRE 1968 1088 1968 800
WIRE 1968 1088 1120 1088
WIRE 1360 1264 1360 1232
WIRE 1360 1264 1312 1264
WIRE 1408 1264 1360 1264
WIRE 1312 1296 1312 1264
WIRE 1264 1312 1200 1312
WIRE 1408 1344 1408 1264
WIRE 1408 1344 1312 1344
WIRE 1120 1408 1120 1088
WIRE 1200 1408 1200 1312
WIRE 1200 1408 1120 1408
WIRE 1312 1408 1312 1392
WIRE 1600 1408 1312 1408
WIRE 1680 1408 1600 1408
WIRE 1312 1424 1312 1408
WIRE 1600 1456 1600 1408
WIRE 1408 1472 1312 1472
WIRE 1200 1504 1200 1408
WIRE 1264 1504 1200 1504
WIRE 1312 1552 1312 1520
WIRE 1360 1552 1312 1552
WIRE 1408 1552 1408 1472
WIRE 1408 1552 1360 1552
WIRE 1360 1600 1360 1552
WIRE 1600 1600 1600 1520
FLAG 1360 32 Vdd
FLAG 992 208 In
FLAG 1360 400 0
FLAG 640 352 0
FLAG 640 208 Vdd
FLAG 832 352 0
FLAG 1840 32 Vdd
FLAG 1840 400 0
FLAG 1360 624 Vdd
FLAG 1360 992 0
FLAG 1840 624 Vdd
FLAG 1840 992 0
FLAG 1360 1232 Vdd
FLAG 1360 1600 0
FLAG 1680 1408 Out
FLAG 1600 1600 0
SYMBOL pmos4 1264 192 M180
SYMATTR InstName M1
SYMATTR Value CMOSP
SYMATTR Value2 l={L} w={WP_1} ad={ADS(WP_1, LD)} as={ADS(WP_1, LD)} pd={PDS(WP_1, LD)} ps={PDS(WP_1, LD)}
SYMBOL nmos4 1264 224 R0
SYMATTR InstName M2
SYMATTR Value CMOSN
SYMATTR Value2 l={L} w={WN_1} ad={ADS(WN_1, LD)} as={ADS(WN_1, LD)} pd={PDS(WN_1, LD)} ps={PDS(WN_1, LD)}
SYMBOL voltage 640 224 R0
WINDOW 123 0 0 Left 0
WINDOW 39 0 0 Left 0
SYMATTR InstName V1
SYMATTR Value {VDD}
SYMBOL voltage 832 224 R0
WINDOW 123 0 0 Left 0
WINDOW 39 0 0 Left 0
WINDOW 3 -260 191 Left 2
SYMATTR Value PULSE(0 {VDD} 10e-12 20e-12 20e-12 1e-9 2e-9)
SYMATTR InstName V2
SYMBOL pmos4 1744 192 M180
SYMATTR InstName M3
SYMATTR Value CMOSP
SYMATTR Value2 l={L} w={WP_2} ad={ADS(WP_2, LD)} as={ADS(WP_2, LD)} pd={PDS(WP_2, LD)} ps={PDS(WP_2, LD)}
SYMBOL nmos4 1744 224 R0
SYMATTR InstName M4
SYMATTR Value CMOSN
SYMATTR Value2 l={L} w={WN_2} ad={ADS(WN_2, LD)} as={ADS(WN_2, LD)} pd={PDS(WN_2, LD)} ps={PDS(WN_2, LD)}
SYMBOL pmos4 1264 784 M180
SYMATTR InstName M5
SYMATTR Value CMOSP
SYMATTR Value2 l={L} w={WP_3} ad={ADS(WP_3, LD)} as={ADS(WP_3, LD)} pd={PDS(WP_3, LD)} ps={PDS(WP_3, LD)}
SYMBOL nmos4 1264 816 R0
SYMATTR InstName M6
SYMATTR Value CMOSN
SYMATTR Value2 l={L} w={WN_3} ad={ADS(WN_3, LD)} as={ADS(WN_3, LD)} pd={PDS(WN_3, LD)} ps={PDS(WN_3, LD)}
SYMBOL pmos4 1744 784 M180
SYMATTR InstName M7
SYMATTR Value CMOSP
SYMATTR Value2 l={L} w={WP_4} ad={ADS(WP_4, LD)} as={ADS(WP_4, LD)} pd={PDS(WP_4, LD)} ps={PDS(WP_4, LD)}
SYMBOL nmos4 1744 816 R0
SYMATTR InstName M8
SYMATTR Value CMOSN
SYMATTR Value2 l={L} w={WN_4} ad={ADS(WN_4, LD)} as={ADS(WN_4, LD)} pd={PDS(WN_4, LD)} ps={PDS(WN_4, LD)}
SYMBOL pmos4 1264 1392 M180
SYMATTR InstName M9
SYMATTR Value CMOSP
SYMATTR Value2 l={L} w={WP_5} ad={ADS(WP_5, LD)} as={ADS(WP_5, LD)} pd={PDS(WP_5, LD)} ps={PDS(WP_5, LD)}
SYMBOL nmos4 1264 1424 R0
SYMATTR InstName M10
SYMATTR Value CMOSN
SYMATTR Value2 l={L} w={WN_5} ad={ADS(WN_5, LD)} as={ADS(WN_5, LD)} pd={PDS(WN_5, LD)} ps={PDS(WN_5, LD)}
SYMBOL cap 1584 1456 R0
SYMATTR InstName C1
SYMATTR Value 500e-15
TEXT 712 752 Left 2 !.include "TSMC180.lib"
TEXT 712 784 Left 2 !.func ADS(w, ld) = {w * ld}
TEXT 712 816 Left 2 !.func PDS(w, ld) {w + 2*ld}
TEXT 712 848 Left 2 !.param L = 0.18e-6
TEXT 712 880 Left 2 !.param LD = 0.48e-6
TEXT 712 944 Left 2 !.param VDD = 1.8
TEXT 712 1016 Left 2 !.tran 0 800e-12 0 1e-12
TEXT 712 912 Left 2 !.param WPFACT = 1.5
TEXT 1192 -72 Left 2 !.param WN_1 = 0.42e-6
TEXT 1192 -40 Left 2 !.param WP_1 = {WN_1 * WPFACT}
TEXT 1672 -72 Left 2 !.param WN_2 = 1.19e-6
TEXT 1672 -40 Left 2 !.param WP_2 = {WN_2 * WPFACT}
TEXT 1192 520 Left 2 !.param WN_3 = 2.29e-06
TEXT 1192 552 Left 2 !.param WP_3 = {WN_3 * WPFACT}
TEXT 1672 520 Left 2 !.param WN_4 = 4.99e-06
TEXT 1672 552 Left 2 !.param WP_4 = {WN_4 * WPFACT}
TEXT 1192 1128 Left 2 !.param WN_5 = 13.00e-6
TEXT 1192 1160 Left 2 !.param WP_5 = {WN_5 * WPFACT}
TEXT 1072 1688 Left 2 !.meas TRAN tphl TRIG V(IN)=0.9 TD=0 RISE=1 TARG V(Out)=0.9 FALL=1
