*V35G SPICE BSIM3 VERSION 3.1 PARAMETERS

*SPICE 3f5 Level 8, Star-HSPICE Level 49, UTMOST Level 8

* DATE: Aug 30/13
* LOT: v35g                  WAF: 1003
* Temperature_parameters=Default
.MODEL CMOSN NMOS (                                LEVEL   = 49
+VERSION = 3.1            TNOM    = 27             TOX     = 1.4E-8
+XJ      = 1.5E-7         NCH     = 1.7E17         VTH0    = 0.619513
+K1      = 0.9153855      K2      = -0.1070218     K3      = 22.3596715
+K3B     = -9.855561      W0      = 2.647286E-8    NLX     = 1E-9
+DVT0W   = 0              DVT1W   = 0              DVT2W   = 0
+DVT0    = 0.8114201      DVT1    = 0.340427       DVT2    = -0.5
+U0      = 454.262        UA      = 1E-13          UB      = 1.40194E-18
+UC      = 7.960576E-13   VSAT    = 1.988326E5     A0      = 0.5974698
+AGS     = 0.1164036      B0      = 1.892152E-6    B1      = 5E-6
+KETA    = -2.698911E-3   A1      = 2.563764E-5    A2      = 0.3
+RDSW    = 990.0808774    PRWG    = 0.1248913      PRWB    = 0.016506
+WR      = 1              WINT    = 2.092016E-7    LINT    = 7.32667E-8
+XL      = 1E-7           XW      = 0              DWG     = -8.495182E-9
+DWB     = 2.914238E-8    VOFF    = -7.66514E-5    NFACTOR = 0.8808186
+CIT     = 0              CDSC    = 2.4E-4         CDSCD   = 0
+CDSCB   = 0              ETA0    = 2.056766E-3    ETAB    = -2.270272E-4
+DSUB    = 0.0766081      PCLM    = 2.2641557      PDIBLC1 = 1.069901E-4
+PDIBLC2 = 1.982241E-3    PDIBLCB = 0.0488959      DROUT   = 2.491126E-3
+PSCBE1  = 3.828283E8     PSCBE2  = 3.395171E-6    PVAG    = 0
+DELTA   = 0.01           RSH     = 81.2           MOBMOD  = 1
+PRT     = 0              UTE     = -1.5           KT1     = -0.11
+KT1L    = 0              KT2     = 0.022          UA1     = 4.31E-9
+UB1     = -7.61E-18      UC1     = -5.6E-11       AT      = 3.3E4
+WL      = 0              WLN     = 1              WW      = 0
+WWN     = 1              WWL     = 0              LL      = 0
+LLN     = 1              LW      = 0              LWN     = 1
+LWL     = 0              CAPMOD  = 2              XPART   = 0.5
+CGDO    = 1.92E-10       CGSO    = 1.92E-10       CGBO    = 1E-9
+CJ      = 4.161289E-4    PB      = 0.8283848      MJ      = 0.4275867
+CJSW    = 3.259973E-10   PBSW    = 0.8            MJSW    = 0.1846732
+CJSWG   = 1.64E-10       PBSWG   = 0.8            MJSWG   = 0.2019414
+CF      = 0              PVTH0   = 0.0196604      PRDSW   = 182.0420443
+PK2     = -0.080875      WKETA   = -6.307602E-3   LKETA   = 2.455625E-3     )
*
.MODEL CMOSP PMOS (                                LEVEL   = 49
+VERSION = 3.1            TNOM    = 27             TOX     = 1.4E-8
+XJ      = 1.5E-7         NCH     = 1.7E17         VTH0    = -0.9152268
+K1      = 0.553472       K2      = 7.871921E-3    K3      = 5.2503102
+K3B     = 0.2135574      W0      = 1E-8           NLX     = 1.010292E-9
+DVT0W   = 0              DVT1W   = 0              DVT2W   = 0
+DVT0    = 0.4718728      DVT1    = 0.1861998      DVT2    = -0.3
+U0      = 201.3603195    UA      = 2.48572E-9     UB      = 1.005454E-21
+UC      = -1E-10         VSAT    = 1.251749E5     A0      = 0.8586086
+AGS     = 0.1052616      B0      = 6.611792E-7    B1      = 1.30949E-8
+KETA    = -4.865785E-3   A1      = 4.575114E-4    A2      = 0.4662896
+RDSW    = 3E3            PRWG    = -0.0219746     PRWB    = -0.0909675
+WR      = 1.01           WINT    = 2.229544E-7    LINT    = 9.96741E-8
+XL      = 1E-7           XW      = 0              DWG     = -3.473702E-9
+DWB     = -1.646069E-8   VOFF    = -0.0404188     NFACTOR = 0.4209038
+CIT     = 0              CDSC    = 2.4E-4         CDSCD   = 0
+CDSCB   = 0              ETA0    = 2.180823E-3    ETAB    = -0.2
+DSUB    = 1              PCLM    = 2.4247996      PDIBLC1 = 0.0835618
+PDIBLC2 = 3.957645E-3    PDIBLCB = -0.0333521     DROUT   = 0.275245
+PSCBE1  = 3.957454E10    PSCBE2  = 4.435653E-8    PVAG    = 0
+DELTA   = 0.01           RSH     = 104.6          MOBMOD  = 1
+PRT     = 0              UTE     = -1.5           KT1     = -0.11
+KT1L    = 0              KT2     = 0.022          UA1     = 4.31E-9
+UB1     = -7.61E-18      UC1     = -5.6E-11       AT      = 3.3E4
+WL      = 0              WLN     = 1              WW      = 0
+WWN     = 1              WWL     = 0              LL      = 0
+LLN     = 1              LW      = 0              LWN     = 1
+LWL     = 0              CAPMOD  = 2              XPART   = 0.5
+CGDO    = 2.45E-10       CGSO    = 2.45E-10       CGBO    = 1E-9
+CJ      = 7.095753E-4    PB      = 0.8613744      MJ      = 0.4858698
+CJSW    = 2.182984E-10   PBSW    = 0.8921837      MJSW    = 0.1908523
+CJSWG   = 6.4E-11        PBSWG   = 0.8            MJSWG   = 0.2261452
+CF      = 0              PVTH0   = 5.98016E-3     PRDSW   = 14.8598424
+PK2     = 3.73981E-3     WKETA   = 9.083818E-3    LKETA   = -8.55818E-3     )
*
